!!>>>>>>>>>>>>>>>>>>>>>>>>>>>>>>>>>>>>>>>>>>>>>>>>>>>>>>>>>>>>>>>>>>>>>>
!! NEMO/OCE :   Reference namelist_ref                                !!
!!>>>>>>>>>>>>>>>>>>>>>>>>>>>>>>>>>>>>>>>>>>>>>>>>>>>>>>>>>>>>>>>>>>>>>>
!! NEMO/OCE  :  1 - Domain & run manager (namrun, namcfg, namdom, namtsd, namcrs, namc1d, namc1d_uvd)
!! namelists    2 - Surface boundary (namsbc, namsbc_flx, namsbc_blk, namsbc_cpl,
!!                                    namsbc_sas, namtra_qsr, namsbc_rnf,
!!                                    namsbc_isf, namsbc_iscpl, namsbc_apr, 
!!                                    namsbc_ssr, namsbc_wave, namberg)
!!              3 - lateral boundary (namlbc, namagrif, nambdy, nambdy_tide)
!!              4 - top/bot boundary (namdrg, namdrg_top, namdrg_bot, nambbc, nambbl)
!!              5 - Tracer           (nameos, namtra_adv, namtra_ldf, namtra_eiv, namtra_dmp)
!!              6 - dynamics         (namdyn_adv, namdyn_vor, namdyn_hpg, namdyn_spg, namdyn_ldf)
!!              7 - Vertical physics (namzdf, namzdf_ric, namzdf_tke, namzdf_gls, namzdf_iwm)
!!              8 - diagnostics      (namnc4, namtrd, namspr, namflo, namhsb)
!!              9 - Obs & Assim      (namobs, nam_asminc)
!!             10 - miscellaneous    (nammpp, namctl, namsto)
!!>>>>>>>>>>>>>>>>>>>>>>>>>>>>>>>>>>>>>>>>>>>>>>>>>>>>>>>>>>>>>>>>>>>>>>
!
!!======================================================================
!!              ***  Domain & Run management namelists  ***           !!
!!                                                                    !!
!!   namrun       parameters of the run
!!   namdom       space and time domain
!!   namcfg       parameters of the configuration                       (default: user defined GYRE)
!!   namwad       Wetting and drying                                    (default: OFF)
!!   namtsd       data: temperature & salinity                          (default: OFF)
!!   namcrs       coarsened grid (for outputs and/or TOP)               (ln_crs =T)
!!   namc1d       1D configuration options                              ("key_c1d")
!!   namc1d_dyndmp 1D newtonian damping applied on currents             ("key_c1d")
!!   namc1d_uvd   1D data (currents)                                    ("key_c1d")
!!======================================================================
!
!-----------------------------------------------------------------------
&namrun        !   parameters of the run
!-----------------------------------------------------------------------
   nn_no       =       0       !  job number (no more used...)
   cn_exp      =  "ORCA1_W25_DET"      !  experience name
   nn_it000    =    1          !  first time step
   nn_itend    =   350400      !  last  time step (std 5475)
   nn_date0    =  20000101 !  date at nit_0000 (format yyyymmdd) used if ln_rstart=F or (ln_rstart=T and nn_rstctl=0 or 1)
   ln_rstart   =  .false.  !  start from rest (F) or from a restart file (T)
   nn_rstctl   =    0      !  restart control ==> activated only if ln_rstart=T
                           !    = 0 nn_date0 read in namelist ; nn_it000 : read in namelist
                           !    = 1 nn_date0 read in namelist ; nn_it000 : check consistancy between namelist and restart
                           !    = 2 nn_date0 read in restart  ; nn_it000 : check consistancy between namelist and restart
!   cn_ocerst_in  = "restart_oce"   !  suffix of ocean restart name (input)
   cn_ocerst_in  = "restart_init_oce"   !  suffix of ocean restart name (input)
   cn_ocerst_out = "restart_oce"   !  suffix of ocean restart name (output)
   nn_istate   =      0    !  output the initial state (1) or not (0)
   nn_stock    =      0    !  frequency of creation of a restart file (modulo referenced to 1)
   nn_write    =     720   !  frequency of write in the output file   (modulo referenced to nn_it000)
   ln_mskland  = .true.   !  mask land points in NetCDF outputs (costly: + ~15%)
   ln_clobber  = .true.   !  clobber (overwrite) an existing file
/
!-----------------------------------------------------------------------
&namdom        !   time and space domain
!-----------------------------------------------------------------------
   rn_Dt       =  3600     !  time step for the dynamics (and tracer if nn_acc=0)
   ln_meshmask = .false.    !  =T create a mesh file
   ln_shuman   = .true.   !  =T  shuman averaging active  (RK3 only)
/
!-----------------------------------------------------------------------
&namcfg        !   parameters of the configuration                      (default: use namusr_def in namelist_cfg)
!-----------------------------------------------------------------------
   ln_read_cfg = .true.    !  (=T) read the domain configuration file
      !                    !  (=F) user defined configuration  ==>>>  see usrdef(_...) modules
      cn_domcfg = "domain_cfg"    ! domain configuration filename
      !
/
!-----------------------------------------------------------------------
&namtsd        !    Temperature & Salinity Data  (init/dmp)             (default: OFF)
!-----------------------------------------------------------------------
   !                       ! =T  read T-S fields for:
   ln_tsd_init = .true.         !  ocean initialisation
   ln_tsd_dmp  = .false.         !  T-S restoring   (see namtra_dmp)
   
   cn_dir      = './'      !  root directory for the T-S data location
   !___________!_________________________!___________________!___________!_____________!________!___________!__________________!__________!_______________!
   !           !  file name              ! frequency (hours) ! variable  ! time interp.!  clim  ! 'yearly'/ ! weights filename ! rotation ! land/sea mask !
   !           !                         !  (if <0  months)  !   name    !   (logical) !  (T/F) ! 'monthly' !                  ! pairing  !    filename   !
   sn_tem  = 'woce_temp_monthly_init_4p2', -1 ,'contemp' , .true. , .true. , 'yearly' , ''  ,   ''    ,    ''
   sn_sal  = 'woce_salt_monthly_init_4p2', -1 ,'presalt' , .true. , .true. , 'yearly' , ''  ,   ''    ,    ''
/
!!======================================================================
!!            ***  Surface Boundary Condition namelists  ***          !!
!!                                                                    !!
!!   namsbc          surface boundary condition manager                 (default: NO selection)
!!   namsbc_flx      flux               formulation                     (ln_flx     =T)
!!   namsbc_blk      Bulk formulae formulation                          (ln_blk     =T)
!!   namsbc_cpl      CouPLed            formulation                     ("key_oasis3" )
!!   namsbc_sas      Stand-Alone Surface module                         (SAS_SRC  only)
!!   namsbc_iif      Ice-IF: use observed ice cover                     (nn_ice = 1   )
!!   namtra_qsr      penetrative solar radiation                        (ln_traqsr  =T)
!!   namsbc_ssr      sea surface restoring term (for T and/or S)        (ln_ssr     =T)
!!   namsbc_rnf      river runoffs                                      (ln_rnf     =T)
!!   namsbc_apr      Atmospheric Pressure                               (ln_apr_dyn =T)
!!   namsbc_isf      ice shelf melting/freezing                         (ln_isfcav  =T : read (ln_read_cfg=T) or set or usr_def_zgr )
!!   namsbc_iscpl    coupling option between land ice model and ocean   (ln_isfcav  =T)
!!   namsbc_wave     external fields from wave model                    (ln_wave    =T)
!!   namberg         iceberg floats                                     (ln_icebergs=T)
!!======================================================================
!
!-----------------------------------------------------------------------
&namsbc        !   Surface Boundary Condition manager                   (default: NO selection)
!-----------------------------------------------------------------------
   nn_fsbc     =  4        ! frequency of SBC module call
      !                    !  (control sea-ice & iceberg model call)
                     ! Type of air-sea fluxes 
   ln_blk      = .TRUE.    !  Bulk formulation                          (T => fill namsbc_blk )
                     ! Sea-ice :
   nn_ice      = 2         !  =0 no ice boundary condition    
      !                    !  =1 use observed ice-cover                 (  => fill namsbc_iif )
      !                    !  =2 or 3 automatically for SI3 or CICE    ("key_si3" or "key_cice")
      !                    !          except in AGRIF zoom where it has to be specified
   ln_ice_embd = .FALSE.   !  =T embedded sea-ice (pressure + mass and salt exchanges)
      !                    !  =F levitating ice (no pressure, mass and salt exchanges)
                     ! Misc. options of sbc :
   ln_traqsr   = .TRUE.    !  Light penetration in the ocean            (T => fill namtra_qsr )
   ln_dm2dc    = .TRUE.    !  daily mean to diurnal cycle on short wave
   !!clem
   ln_ssr      = .TRUE.   !  Sea Surface Restoring on T and/or S       (T => fill namsbc_ssr)
   nn_fwb      = 1         !  FreshWater Budget: =0 unchecked
   !!clem
      !                    !     =1 global mean of e-p-r set to zero at each time step
      !                    !     =2 annual global mean of e-p-r set to zero
   ln_rnf      = .TRUE.    !  runoffs                                   (T => fill namsbc_rnf)
/
!-----------------------------------------------------------------------
&namsbc_blk    !   namsbc_blk  generic Bulk formula                     (ln_blk =T)
!-----------------------------------------------------------------------
   !                    !  bulk algorithm :
   ln_NCAR     = .TRUE.   ! "NCAR"      algorithm   (Large and Yeager 2008)
   !
   ln_crt_fbk = .FALSE.     !  Add surface current feedback to the wind stress (Renault et al. 2020, doi: 10.1029/2019MS001715)
         rn_stau_a = -2.9e-3   !     Alpha from eq. 10: Stau = Alpha * Wnd + Beta
         rn_stau_b =  8.0e-3   !     Beta 

   !! Bulk transfer coefficients over sea-ice: (relevant IF: nn_ice >=1 )
   ln_Cx_ice_cst = .TRUE.     ! use constant ice-air bulk transfer coefficients (value given below)
      rn_Cd_ia  = 1.e-3       ! sea-ice drag coefficient
      rn_Ce_ia  = 1.e-3       !    "    sublimation coefficient
      rn_Ch_ia  = 1.e-3       !    "    sensible heat flux coefficient
   !
   cn_dir      = './'      !  root directory for the bulk data location
   !___________!______________________________!___________________!___________!______________!__________!___________!______________________!__________!_______________!
   !           !             file name        ! frequency (hours) ! variable  ! time interp. !  clim    ! 'yearly'/ !  weights filename    ! rotation ! land/sea mask !
   !           !                              !  (if <0  months)  !   name    !   (logical)  !  (T/F)   ! 'monthly' !                      ! pairing  !    filename   !
   sn_wndi     = 'u_10.15JUNE2009'       ,         6.        , 'U_10_MOD',   .false.    ,  .true. , 'yearly'  , 'weights_coreII_2_eORCA1.4.2_bicubic.nc'  , 'Uwnd'   , ''
   sn_wndj     = 'v_10.15JUNE2009'       ,         6.        , 'V_10_MOD',   .false.    ,  .true. , 'yearly'  , 'weights_coreII_2_eORCA1.4.2_bicubic.nc'  , 'Vwnd'   , ''
   sn_qsr      = 'ncar_rad.15JUNE2009'   ,        24.        , 'SWDN_MOD',   .false.    ,  .true. , 'yearly'  , 'weights_coreII_2_eORCA1.4.2_bilinear.nc' , ''       , ''
   sn_qlw      = 'ncar_rad.15JUNE2009'   ,        24.        , 'LWDN_MOD',   .false.    ,  .true. , 'yearly'  , 'weights_coreII_2_eORCA1.4.2_bilinear.nc' , ''       , ''
   sn_tair     = 't_10.15JUNE2009'       ,         6.        , 'T_10_MOD',   .false.    ,  .true. , 'yearly'  , 'weights_coreII_2_eORCA1.4.2_bilinear.nc' , ''       , ''
   sn_humi     = 'q_10.15JUNE2009'       ,         6.        , 'Q_10_MOD',   .false.    ,  .true. , 'yearly'  , 'weights_coreII_2_eORCA1.4.2_bilinear.nc' , ''       , ''
   sn_prec     = 'ncar_precip.15JUNE2009',        -1.        , 'PRC_MOD' ,   .false.    ,  .true. , 'yearly'  , 'weights_coreII_2_eORCA1.4.2_bilinear.nc' , ''       , ''
   sn_snow     = 'ncar_precip.15JUNE2009',        -1.        , 'SNOW'    ,   .false.    ,  .true. , 'yearly'  , 'weights_coreII_2_eORCA1.4.2_bilinear.nc' , ''       , ''
   sn_slp      = 'slp.15JUNE2009'        ,         6.        , 'SLP'     ,   .false.    ,  .true. , 'yearly'  , 'weights_coreII_2_eORCA1.4.2_bilinear.nc' , ''       , ''
   !
/
!-----------------------------------------------------------------------
&namtra_qsr    !   penetrative solar radiation                          (ln_traqsr =T)
!-----------------------------------------------------------------------
   !                       !  type of penetration                        (default: NO selection)
   ln_qsr_rgb  = .true.       !  RGB light penetration (Red-Green-Blue)
   nn_chldta   =      1       !  RGB : Chl data (=1) or cst value (=0)
   !
   cn_dir = './'  !  root directory for the chlorophyl data location
   !___________!_________________________!___________________!___________!_____________!________!___________!__________________!__________!_______________!
   !           !  file name              ! frequency (hours) ! variable  ! time interp.!  clim  ! 'yearly'/ ! weights filename ! rotation ! land/sea mask !
   !           !                         !  (if <0  months)  !   name    !   (logical) !  (T/F) ! 'monthly' !                  ! pairing  !    filename   !
  sn_chl      ='merged_ESACCI_BIOMER4V1R1_CHL_REG05',  -1  , 'CHLA' , .true. , .true. , 'yearly' , 'weights_reg05_bilinear.nc' , '' , ''
/
!-----------------------------------------------------------------------
&namsbc_ssr    !   surface boundary condition : sea surface restoring   (ln_ssr =T)
!-----------------------------------------------------------------------
   nn_sssr     =     2     !  add a damping term to the surface freshwater flux
      rn_deds     =  -220.00  !  magnitude of the damping on salinity   [mm/day]
      ln_sssr_bnd =  .true.   !  flag to bound erp term (associated with nn_sssr=2)
      rn_sssr_bnd =   4.e0    !  ABS(Max/Min) value of the damping erp term [mm/day]
!!clem
      nn_sssr_ice =   0  !! 1       ! control of sea surface restoring under sea-ice
                              ! 0 = no restoration under ice : * (1-icefrac)
   !___________!_________________________!___________________!___________!_____________!________!___________!__________________!__________!_______________!
   !           !  file name              ! frequency (hours) ! variable  ! time interp.!  clim  ! 'yearly'/ ! weights filename ! rotation ! land/sea mask !
   !           !                         !  (if <0  months)  !   name    !   (logical) !  (T/F) ! 'monthly' !                  ! pairing  !    filename   !
   sn_sss      = 'sss_climatology_for_restoring', -1. , 'presalt',    .true. ,         .true. , 'yearly' ,    '' ,      ''
/
!-----------------------------------------------------------------------
&namsbc_rnf    !   runoffs                                              (ln_rnf =T)
!-----------------------------------------------------------------------
   ln_rnf_depth_ini = .true. ! compute depth at initialisation from runoff file
      rn_rnf_max  = 0.05  !  max value of the runoff climatologie over global domain ( ln_rnf_depth_ini = .true )
      rn_dep_max  = 150.      !  depth over which runoffs is spread ( ln_rnf_depth_ini = .true )
      nn_rnf_depth_file = 0   !  create (=1) a runoff depth file or not (=0)

   cn_dir = './'  !  root directory for the location of the runoff files
   !___________!_____________!___________________!___________!_____________!_________!___________!__________!__________!_______________!
   !           !  file name  ! frequency (hours) ! variable  ! time interp. !  clim  ! 'yearly'/ ! weights  ! rotation ! land/sea mask !
   !           !             !  (if <0  months)  !   name    !   (logical)  !  (T/F) ! 'monthly' ! filename ! pairing  ! filename      !
   sn_rnf      = 'runoff-icb_DaiTrenberth_Depoorter', -1 , 'sorunoff', .true.  , .true. , 'yearly'  , '' , '' , ''
   sn_i_rnf    = 'runoff-icb_DaiTrenberth_Depoorter', -1 , 'Icb_flux', .true.  , .true. , 'yearly'  , '' , '' , ''
   sn_cnf      = 'runoff-icb_DaiTrenberth_Depoorter',  0 , 'socoefr' , .false. , .true. , 'yearly'  , '' , '' , ''
/
!-----------------------------------------------------------------------
&namisf       !  Top boundary layer (ISF)                               (default: OFF)
!-----------------------------------------------------------------------
   !
   ! ---------------- ice shelf melt formulation -------------------------------
   !
   ln_isf = .true.           ! activate ice shelf module
      !
      ! ---------------- cavities parametrised -------------------------------
      !
      ln_isfpar_mlt = .true.   ! ice shelf melting parametrised
         cn_isfpar_mlt = 'spe'  ! ice shelf melting parametrisation (spe/bg03/oasis)
         !                      ! spe   = fwfisf is read from a forcing field
         !                      ! bg03  = melt computed using Beckmann and Goosse parametrisation
         !                      ! oasis = fwfisf is given by oasis and pattern by file sn_isfpar_fwf
         !
         !* all cases
         !___________!_____________!___________________!___________!_____________!_________!___________!__________!__________!_______________!
         !           !  file name  ! frequency (hours) ! variable  ! time interp.!  clim   ! 'yearly'/ ! weights  ! rotation ! land/sea mask !
         !           !             !  (if <0  months)  !   name    !  (logical)  !  (T/F)  ! 'monthly' ! filename ! pairing  ! filename      !
         sn_isfpar_zmax = 'runoff-icb_DaiTrenberth_Depoorter', -12 ,'sodepmax_isf' , .false. , .true. , 'yearly' , '' , ''
         sn_isfpar_zmin = 'runoff-icb_DaiTrenberth_Depoorter', -12 ,'sodepmin_isf' , .false. , .true. , 'yearly' , '' , ''
         !* 'spe' and 'oasis' case
         sn_isfpar_fwf  = 'runoff-icb_DaiTrenberth_Depoorter', -12 ,'sornfisf'     , .false. , .true. , 'yearly' , '' , ''
/
!!======================================================================
!!               ***  Lateral boundary condition  ***                 !!
!!                                                                    !!
!!   namlbc        lateral momentum boundary condition                  (default: NO selection)
!!   namagrif      agrif nested grid   (read by child model only)       ("key_agrif")
!!   nam_tide      Tidal forcing                                        (default: OFF)
!!   nambdy        Unstructured open boundaries                         (default: OFF)
!!   nambdy_dta    Unstructured open boundaries - external data         (see  nambdy)
!!   nambdy_tide   tidal forcing at open boundaries                     (default: OFF)
!!======================================================================
!
!-----------------------------------------------------------------------
&namlbc        !   lateral momentum boundary condition                  (default: NO selection)
!-----------------------------------------------------------------------
   !                       !  free slip  !   partial slip  !   no slip   ! strong slip
   rn_shlat    =    2.     !  shlat = 0  !  0 < shlat < 2  !  shlat = 2  !  2 < shlat
/
!!======================================================================
!!                ***  Top/Bottom boundary condition  ***             !!
!!                                                                    !!
!!   namdrg        top/bottom drag coefficient                          (default: NO selection)
!!   namdrg_top    top    friction                                      (ln_OFF=F & ln_isfcav=T)
!!   namdrg_bot    bottom friction                                      (ln_OFF=F)
!!   nambbc        bottom temperature boundary condition                (default: OFF)
!!   nambbl        bottom boundary layer scheme                         (default: OFF)
!!======================================================================
!
!-----------------------------------------------------------------------
&namdrg        !   top/bottom drag coefficient                          (default: NO selection)
!-----------------------------------------------------------------------
   ln_non_lin  = .true.   !  non-linear  drag: Cd = Cd0 |U|
   !
   ln_drgimp   = .true.    !  implicit top/bottom friction flag
      ln_drgice_imp = .true. ! implicit ice-ocean drag
/
!-----------------------------------------------------------------------
&namdrg_bot    !   BOTTOM friction                                      (ln_OFF =F)
!-----------------------------------------------------------------------
   rn_Cd0      =  1.e-3    !  drag coefficient [-]
   rn_Cdmax    =  0.1      !  drag value maximum [-] (logarithmic drag)
   rn_ke0      =  2.5e-3   !  background kinetic energy  [m2/s2] (non-linear cases)
   rn_z0       =  3.e-3    !  roughness [m] (ln_loglayer=T)
/
!-----------------------------------------------------------------------
&nambbc        !   bottom temperature boundary condition                (default: OFF)
!-----------------------------------------------------------------------
   ln_trabbc   = .true.    !  Apply a geothermal heating at the ocean bottom
      nn_geoflx   =    2      !  geothermal heat flux: = 2 read variable flux [mW/m2]

   cn_dir = './'  !  root directory for the geothermal data location
   !___________!____________________!___________________!___________!_____________!________!___________!__________________!__________!_______________!
   !           !  file name         ! frequency (hours) ! variable  ! time interp.!  clim  ! 'yearly'/ ! weights filename ! rotation ! land/sea mask !
   !           !                    !  (if <0  months)  !   name    !   (logical) !  (T/F) ! 'monthly' !                  ! pairing  !    filename   !
   sn_qgh      ='geothermal_heat_flux.nc',        -12.       , 'gh_flux' ,   .false.   , .true. , 'yearly' , 'weights_ghflux_bilinear.nc' , '' , ''
/
!-----------------------------------------------------------------------
&nambbl        !   bottom boundary layer scheme                         (default: OFF)
!-----------------------------------------------------------------------
   ln_trabbl   = .true.    !  Bottom Boundary Layer parameterisation flag
      nn_bbl_ldf  =  0        !  diffusive bbl (=1)   or not (=0)
      nn_bbl_adv  =  2        !  advective bbl (=1/2) or not (=0)
      rn_ahtbbl   =  1000.    !  lateral mixing coefficient in the bbl  [m2/s]
      rn_gambbl   =  20.      !  advective bbl coefficient                 [s]
/

!!======================================================================
!!                        Tracer (T-S) namelists                      !!
!!                                                                    !!
!!   nameos        equation of state                                    (default: NO selection)
!!   namtra_adv    advection scheme                                     (default: NO selection)
!!   namtra_ldf    lateral diffusion scheme                             (default: NO selection)
!!   namtra_mle    mixed layer eddy param. (Fox-Kemper param.)          (default: OFF)
!!   namtra_eiv    eddy induced velocity param.                         (default: OFF)
!!   namtra_dmp    T & S newtonian damping                              (default: OFF)
!!======================================================================
!
!-----------------------------------------------------------------------
&nameos        !   ocean Equation Of Seawater                           (default: NO selection)
!-----------------------------------------------------------------------
!  ln_eos80    = .true.         !  = Use EOS80
   ln_teos10   = .true.         !  = Use TEOS-10
/
!-----------------------------------------------------------------------
&namtra_adv    !   advection scheme for tracer                          (default: NO selection)
!-----------------------------------------------------------------------
   ln_traadv_fct = .true.     !  FCT scheme
      nn_fct_h   =  2               !  =2/4, horizontal 2nd / 4th order 
      nn_fct_v   =  2               !  =2/4, vertical   2nd / COMPACT 4th order 
/
!-----------------------------------------------------------------------
&namtra_ldf    !   lateral diffusion scheme for tracers                 (default: NO selection)
!-----------------------------------------------------------------------
   ln_traldf_lap   = .true.    !    laplacian operator
   ln_traldf_iso   = .true.    !  iso-neutral (Standard operator)
   ln_traldf_msc   = .true.    !  Method of Stabilizing Correction      (both operators)
   !                       !  Coefficients:
   nn_aht_ijk_t    = 21        !  space/time variation of eddy coef
      !                             !   = 20     aht = 1/2  Ud. max(e1,e2)
      rn_Ud        = 0.018          !  lateral diffusive velocity [m/s] (nn_aht_ijk_t= 0, 10, 20, 30)
      rn_Ld        = 100.e+3        !  lateral diffusive length   [m]   (nn_aht_ijk_t= 0, 10)
/
!-----------------------------------------------------------------------
&namtra_mle    !   mixed layer eddy parametrisation (Fox-Kemper)        (default: OFF)
!-----------------------------------------------------------------------
   ln_mle      = .true.   ! (T) use the Mixed Layer Eddy (MLE) parameterisation
/
!-----------------------------------------------------------------------
&namtra_eiv    !   eddy induced velocity param.                         (default: OFF)
!-----------------------------------------------------------------------
   ln_ldfeiv   = .true.    ! use eddy induced velocity parameterization
      !                        !  Coefficients:
      nn_aei_ijk_t  = 21          ! space/time variation of the eiv coeficient
      !                                !   = 21 F(i,j,t)  =Treguier et al. JPO 1997 formulation
      !                           !  time invariant coefficients:  aei0 = 1/2  Ue*Le 
      rn_Ue        = 0.018             !  lateral diffusive velocity [m/s] (nn_aht_ijk_t= 0, 10, 20, 30)
      rn_Le        = 100.e+3           !  lateral diffusive length   [m]   (nn_aht_ijk_t= 0, 10)
      !
/
!-----------------------------------------------------------------------
&namtra_dmp    !   tracer: T & S newtonian damping                      (default: OFF)
!-----------------------------------------------------------------------
   ln_tradmp   =  .false.   !  add a damping term (using resto.nc coef.)
      nn_zdmp  =    0         !  vertical shape =0    damping throughout the water column
/

!!======================================================================
!!                      ***  Dynamics namelists  ***                  !!
!!                                                                    !!
!!   nam_vvl       vertical coordinate options                          (default: z-star)
!!   namdyn_adv    formulation of the momentum advection                (default: NO selection)
!!   namdyn_vor    advection scheme                                     (default: NO selection)
!!   namdyn_hpg    hydrostatic pressure gradient                        (default: NO selection)
!!   namdyn_spg    surface pressure gradient                            (default: NO selection)
!!   namdyn_ldf    lateral diffusion scheme                             (default: NO selection)
!!   namdta_dyn    offline TOP: dynamics read in files                  (OFF_SRC only)
!!======================================================================
!
!-----------------------------------------------------------------------
&nam_vvl       !   vertical coordinate options                          (default: z-star)
!-----------------------------------------------------------------------
   ln_vvl_zstar  = .true.           !  z-star vertical coordinate
/
!-----------------------------------------------------------------------
&namdyn_adv    !   formulation of the momentum advection                (default: NO selection)
!-----------------------------------------------------------------------
   ln_dynadv_vec = .true.  !  vector form - 2nd centered scheme
      nn_dynkeg     = 1        ! grad(KE) scheme: =0   C2  ;  =1   Hollingsworth correction
/
!-----------------------------------------------------------------------
&namdyn_vor    !   Vorticity / Coriolis scheme                          (default: NO selection)
!-----------------------------------------------------------------------
   ln_dynvor_een = .true.  !  energy & enstrophy scheme
      nn_e3f_typ = 0          ! =0   e3f = mean masked e3t divided by 4
/
!-----------------------------------------------------------------------
&namdyn_hpg    !   Hydrostatic pressure gradient option                 (default: NO selection)
!-----------------------------------------------------------------------
   ln_hpg_sco  = .true.   !  s-coordinate (standard jacobian formulation)
/
!-----------------------------------------------------------------------
&namdyn_spg    !   surface pressure gradient                            (default: NO selection)
!-----------------------------------------------------------------------
   ln_dynspg_ts   = .true.   ! split-explicit free surface
!!      nn_bt_flt     = 3          ! Add dissipation with either nn_e width boxcar averaging
      !                          !                         or dissipative Forward-Backward
      !                          !                     = 0 None
      !                          !                     = 1 Boxcar over   nn_e sub-steps
      !                          !                     = 2 Boxcar over 2*nn_e  "    "
      !                          !                     = 3 Temporal dissipation (Demange 2019)
      ln_bt_auto    = .true.     ! Number of sub-step defined from: